117

Rh         0.00000        0.00000        0.00000
Rh         3.39499        0.00000        0.00000
Se         2.10639        0.60384        2.55099
Cl         5.84838       -0.05006        0.33545
Cl        -1.79828        0.22720        1.62196
P          3.28963        2.29669       -0.51349
P          3.28507       -2.33608        0.30058
P          0.12614       -2.33112        0.25250
P          0.08548        2.27644       -0.56078
F          0.62806       -1.59354       -3.68768
F         -1.07937       -0.67124       -2.67166
F          0.27956        0.55320       -3.85223
O          3.16963        0.57021       -3.78239
O          3.91754       -1.48019       -3.16420
C          1.69539        0.19553        0.84995
C         -0.14889       -3.08871        1.88430
C          5.81036       -3.46079        0.08465
H          6.01749       -2.90182        0.99037
C         -0.00713       -2.33420        3.05185
H          0.22795       -1.27848        2.98413
C         -0.27104        3.55502        0.68893
C         -0.47026        4.26305        2.99081
H         -0.44947        4.02350        4.05002
C          1.05600       -0.27304       -1.72083
C          4.08461        5.04061        3.11148
H          4.29276        5.67446        3.96888
C         -2.46291       -2.80953       -0.52632
H         -2.69367       -2.10716        0.27149
C          3.42643       -2.87873        2.03436
C          1.71247       -3.05741       -0.33237
H          1.69886       -4.13608       -0.15091
H          1.74111       -2.88453       -1.41242
C          4.13344       -2.07727        2.93893
H          4.55110       -1.13315        2.60379
C          5.44649        2.11663       -2.30104
H          5.50101        1.07811       -1.99182
C          6.54436       -4.97401       -1.65260
H          7.32037       -5.59101       -2.09672
C         -0.74782        5.87232        1.20720
H         -0.94692        6.88744        0.87592
C         -0.53433        4.86777        0.26691
H         -0.57445        5.10443       -0.79315
C         -1.84556        3.61799       -3.96111
H         -1.61054        4.16616       -4.86887
C          6.29510        3.96762       -3.60632
H          7.00193        4.36219       -4.33076
C          5.32991        4.80790       -3.04410
H          5.28461        5.85544       -3.32791
C          0.24425       -0.48879       -2.96693
C          4.50563        3.01982        1.85208
H          5.03650        2.08021        1.72000
C          3.53373        3.40018        0.91355
C         -1.13273        2.65274       -1.86088
C          3.23205       -0.49389       -2.94709
C         -0.16265       -2.94377        4.29584
H         -0.04265       -2.35477        5.20042
C          1.69303        2.79760       -1.30393
H          1.73984        2.34109       -2.29795
H          1.68237        3.88456       -1.43019
C          3.11959        5.42201        2.17939
H          2.56955        6.34952        2.30646
C         -0.25411        3.25344        2.05283
H         -0.07226        2.23534        2.37470
C          2.91739       -4.11461        2.45524
H          2.38691       -4.75942        1.76326
C          4.28415       -4.11181       -1.67704
H          3.31861       -4.05562       -2.16514
C         -0.46991       -4.30173        4.37769
H         -0.58968       -4.77496        5.34821
C         -0.82204       -4.03248       -1.82682
H          0.20516       -4.30139       -2.04794
C          4.42748        4.30534       -2.10959
H          3.69521        4.97237       -1.66276
C          4.78149        3.84119        2.94201
H          5.53414        3.54000        3.66505
C         -0.46961       -4.45220        1.96613
H         -0.59884       -5.03839        1.06027
C         -3.17919       -4.25644       -2.32476
H         -3.97660       -4.68807       -2.92276
C          3.77687       -3.71785        4.67826
H          3.90367       -4.04051        5.70788
C          2.84817        4.60800        1.07977
H          2.09027        4.92019        0.37151
C          4.30944       -2.49957        4.25680
H          4.85809       -1.87183        4.95311
C         -1.85068       -4.58661       -2.59086
H         -1.60912       -5.27714       -3.39364
C         -0.62670       -5.05547        3.21133
H         -0.87292       -6.11170        3.27156
C         -2.44246        2.20352       -1.62951
H         -2.66817        1.64909       -0.72085
C          3.08449       -4.52690        3.77419
H          2.67039       -5.47753        4.09574
C         -1.12430       -3.14338       -0.79042
C          6.35457        2.62586       -3.22995
H          7.10868        1.97127       -3.65736
C          5.28148       -4.90580       -2.24217
H          5.06908       -5.46706       -3.14762
C         -3.48365       -3.36736       -1.28970
H         -4.51674       -3.10470       -1.08126
C          2.39964       -0.28128       -1.73629
C          4.53994       -3.38817       -0.50672
C         -3.44443        2.46553       -2.55986
H         -4.45517        2.11300       -2.37624
C          4.47681        2.95283       -1.73979
C          6.80659       -4.24730       -0.48925
H          7.78719       -4.29389       -0.02434
C         -0.71089        5.57104        2.57184
H         -0.87658        6.35586        3.30447
C         -0.83765        3.36018       -3.03144
H          0.17096        3.70677       -3.23096
C         -3.14727        3.17304       -3.72757
H         -3.92811        3.37293       -4.45564
C          3.97065        0.46095       -4.99076
H          3.88193        1.43182       -5.47503
H          5.00836        0.24509       -4.73191
H          3.56944       -0.33328       -5.62411
