120

Rh         0.00000        0.00000        0.00000
Rh         3.38557        0.00000        0.00000
Se         1.23930       -0.19222        2.61624
Cl        -2.46842        0.03134        0.11822
Cl         5.21701       -0.17873        1.62080
P          0.07027       -2.33497       -0.29165
P          3.29263        2.33537        0.04656
P          3.23812       -2.30787       -0.38853
P          0.11517        2.36090        0.06211
O          4.48451        0.21126       -2.52828
O          2.84260        0.55669       -4.06495
O         -0.48578        1.16952       -3.25300
O          0.07143       -0.99337       -3.65090
C         -0.78331        3.98031       -2.09724
H          0.22176        3.94526       -2.50108
C          3.95436       -5.32586        3.02077
H          4.10019       -6.04406        3.82275
C         -0.57185        4.13270        4.26920
H         -0.74656        4.54238        5.26012
C         -1.41573        1.11151       -4.36662
H         -0.87464        0.91407       -5.29452
H         -1.88623        2.09310       -4.38698
H         -2.15277        0.32626       -4.18648
C         -3.24297       -4.31352       -2.84590
H         -4.03334       -4.77842       -3.42848
C          1.63390       -2.87462       -1.09500
H          1.66042       -3.96442       -1.18803
H          1.56525       -2.43829       -2.09752
C         -2.42129        3.37304       -0.42475
H         -2.68215        2.85941        0.49360
C          1.70270       -0.07034        0.88116
C          6.79317       -3.00292       -2.22326
H          7.83768       -2.93799       -1.93246
C          2.33385        0.16146       -1.71964
C         -3.07063        4.73894       -2.31217
H         -3.83144        5.29113       -2.85651
C          4.44602       -2.78998       -1.66157
C          4.04355        5.35326        2.70610
H          4.24761        6.41913        2.65932
C          0.25857       -5.28263        2.57420
H          0.72167       -6.25748        2.69239
C          1.70680        3.02070       -0.58873
H          1.68417        2.76143       -1.65140
H          1.72559        4.11068       -0.49791
C          0.25640        4.80841        3.37090
H          0.72995        5.74230        3.65805
C          3.49454       -3.06713        2.29212
H          3.28767       -2.02770        2.51826
C          0.17940        0.03047       -2.98994
C          3.18011        0.32585       -2.91216
C         -1.13032       -3.49895        3.43175
H         -1.75663       -3.08585        4.21724
C          0.98724        0.12143       -1.75072
C         -1.94718       -4.24067       -3.35661
H         -1.72205       -4.64691       -4.33864
C         -0.93811        2.39635        2.62768
H         -1.40041        1.45928        2.33065
C          3.71113        3.33522        3.99859
H          3.65310        2.82902        4.95780
C          4.53221        3.03389       -1.09058
C         -1.17726        2.93290        3.89200
H         -1.82817        2.40709        4.58462
C         -0.53774       -4.75265        3.59141
H         -0.69805       -5.31749        4.50550
C          3.86618        4.63032        1.52959
H          3.93670        5.13360        0.56876
C          0.46655       -4.56009        1.40142
H          1.07949       -4.98981        0.61719
C          5.24898        4.21465       -3.07850
H          5.00043        4.76506       -3.98118
C         -3.51982       -3.78857       -1.58128
H         -4.52601       -3.84109       -1.17529
C          6.58196        3.98376       -2.74107
H          7.37700        4.35338       -3.38210
C          3.68315       -3.99094        3.31946
H          3.61747       -3.66461        4.35331
C          3.59925        3.25366        1.58685
C          5.10541       -3.44803       -3.89541
H          4.83094       -3.73308       -4.90684
C         -0.10101        3.06856        1.72660
C          3.85336       -4.82385        0.65935
H          3.92796       -5.14723       -0.37559
C          3.56859       -3.48297        0.96015
C          6.89342        3.26959       -1.57999
H          7.93011        3.07985       -1.31731
C         -1.10460        3.31829       -0.90617
C          6.44804       -3.37564       -3.52580
H          7.22445       -3.60385       -4.25022
C          4.10362       -3.15501       -2.96766
H          3.06562       -3.21536       -3.27658
C          0.48267        4.28508        2.09977
H          1.11983        4.82837        1.41137
C         -1.20190       -3.11767       -1.34376
C         -1.76186        4.69019       -2.79314
H         -1.49715        5.20269       -3.71372
C          4.22314        3.74104       -2.25703
H          3.19299        3.93571       -2.53519
C          4.04310       -5.74179        1.68905
H          4.26171       -6.77946        1.45366
C          5.79950       -2.70678       -1.29541
H          6.06487       -2.39993       -0.28667
C          5.48205        0.37447       -3.56630
H          5.39370        1.36938       -4.00624
H          5.34498       -0.39390       -4.32935
H          6.43774        0.25449       -3.06062
C         -0.92979       -3.64232       -2.61262
H          0.06450       -3.58239       -3.03670
C         -0.10480       -3.29138        1.24789
C         -0.91071       -2.76545        2.26666
H         -1.36400       -1.78657        2.13882
C          5.87606        2.79228       -0.75984
H          6.11379        2.22202        0.13523
C          3.53551        2.60574        2.82291
H          3.34763        1.53912        2.85936
C         -2.50694       -3.19579       -0.83214
H         -2.72851       -2.78816        0.14754
C          3.96089        4.70603        3.94255
H          4.09636        5.27225        4.85974
C         -3.39692        4.07767       -1.12628
H         -4.41321        4.10963       -0.74410
