114

Rh         3.37264        0.00000        0.00000
Rh         0.00000        0.00000        0.00000
Se         2.10282       -0.01928        2.63524
Cl        -1.77691       -0.08373        1.65626
Cl         5.81825       -0.21171        0.39094
P          0.06515       -2.33505       -0.23146
P          0.10657        2.34995       -0.01855
P          3.30574        2.35863        0.06513
P          3.22469       -2.33825       -0.25261
F          4.51086       -0.08474       -2.85443
F          2.76929       -0.42603       -4.10285
F          3.24783        1.59853       -3.42971
C          1.68452       -0.00838        0.89023
C          3.51988        3.07256        1.72627
C         -0.76948        3.78216       -2.32594
H          0.26364        4.02832       -2.54623
C          4.47454        2.46974        2.55972
H          5.00089        1.58293        2.21498
C          3.42904       -3.29399        1.28321
C          4.33532       -3.45016        3.52318
H          4.88741       -3.00171        4.34408
C          2.39405        0.11138       -1.77125
C         -0.42931       -5.15303        3.38582
H         -0.52313       -5.82727        4.23240
C          4.38747        4.71521       -1.01580
H          3.57907        5.23590       -0.51033
C         -0.26004        3.30651        1.48809
C          1.71724        3.02637       -0.60633
H          1.69159        4.11408       -0.49234
H          1.77971        2.80240       -1.67560
C         -0.22246        2.71477        2.75282
H         -0.01948        1.65493        2.84383
C         -0.95997       -3.74354       -2.48344
H          0.04654       -4.08863       -2.69540
C         -3.11062        3.93224       -2.91922
H         -3.88966        4.28537       -3.58857
C          3.11968       -5.31458        2.58119
H          2.71592       -6.31844        2.66945
C          2.93275       -4.59966        1.40150
H          2.39667       -5.06617        0.58259
C          5.17159       -3.77613       -3.58768
H          4.95992       -3.90301       -4.64539
C         -3.30838       -3.70670       -3.06316
H         -4.12024       -4.01670       -3.71471
C         -3.56576       -2.86832       -1.97537
H         -4.57661       -2.52353       -1.77820
C          3.21593        0.28606       -3.02367
C         -0.02203       -2.93644        2.51063
H          0.19274       -1.88660        2.67021
C         -0.17335       -3.42275        1.20981
C          4.44513       -3.08539       -1.38169
C          4.73950        3.00623        3.81711
H          5.47855        2.53394        4.45796
C          1.63489       -2.92171       -0.98739
H          1.62300       -2.54445       -2.01324
H          1.63987       -4.01466       -1.02343
C         -0.59977       -5.63818        2.08646
H         -0.83121       -6.68627        1.91967
C          4.13999       -2.72546        2.34757
H          4.54670       -1.72488        2.24403
C         -0.54272        4.67637        1.36534
H         -0.59491        5.13787        0.38276
C         -2.44858        2.71349       -0.94060
H         -2.70355        2.11088       -0.07156
C          4.05016        4.13979        4.25604
H          4.24972        4.55026        5.24189
C          5.57899        2.67483       -1.54914
H          5.68597        1.60073       -1.45077
C         -2.52510       -2.46528       -1.14314
H         -2.71924       -1.80722       -0.29898
C         -0.14357       -3.80422        3.59516
H         -0.01533       -3.42239        4.60382
C          2.84283        4.21588        2.16298
H          2.10022        4.69697        1.53752
C          6.37715        4.79967       -2.38590
H          7.10077        5.37446       -2.95695
C         -0.70603        4.85510        3.76945
H         -0.87444        5.45798        4.65730
C         -0.47464       -4.77706        0.99953
H         -0.61438       -5.15659       -0.00905
C         -0.44311        3.49111        3.89030
H         -0.40713        3.02617        4.87119
C          6.50950        3.41548       -2.27943
H          7.33752        2.90639       -2.76432
C          3.10412        4.74328        3.42740
H          2.56110        5.62164        3.76279
C          5.69977       -3.44386       -0.86678
H          5.90755       -3.31326        0.18955
C         -0.75922        5.44749        2.50433
H         -0.97385        6.50757        2.40473
C          4.51033        3.32031       -0.92033
C         -2.00693       -4.14184       -3.31525
H         -1.80230       -4.79240       -4.16053
C         -3.44601        3.17014       -1.79588
H         -4.48456        2.92828       -1.58983
C          5.31474        5.44947       -1.75084
H          5.21133        6.52833       -1.82346
C          1.04667        0.08127       -1.74842
C         -1.10284        3.02122       -1.20142
C          6.67847       -3.96599       -1.70946
H          7.64624       -4.24164       -1.30058
C         -1.21532       -2.90449       -1.39289
C         -1.77525        4.23583       -3.18165
H         -1.51011        4.82718       -4.05315
C          3.81744       -4.73935        3.64554
H          3.95914       -5.29823        4.56629
C          4.18984       -3.25006       -2.74906
H          3.23442       -2.96692       -3.17695
C          6.41713       -4.13475       -3.07081
H          7.18080       -4.54413       -3.72583
C          0.15241        0.09504       -2.96119
F         -1.15967        0.23826       -2.58069
F          0.39533        1.10567       -3.84397
F          0.18807       -1.06560       -3.68423
